Master.dss
Clear

new Circuit.psu_13_node_feeder_7
~ basekv=115 pu=1.00 phases=3 bus1=SourceBus
~ Angle=30
~ MVAsc3=20000 MVASC1=21000

set earthmodel=carson // gridLAB-D compatibility

New XfmrCode.SubXfmr Phases=3 Windings=2  XHL=(8 1000 /)
~ wdg=1 conn=delta kv=115  kva=1000000  %r=(.5 1000 /)
~ wdg=2 conn=wye   kv=4.16 kva=1000000  %r=(.5 1000 /)

New Transformer.Sub  XfmrCode=SubXfmr Buses=[SourceBus N650]

New Transformer.trans_N650-N630 phases=3 windings=2 conns=(wye, wye)
~ wdg=1 bus=N650 kV=4.16
~ wdg=2 bus=N630 kV=2.4
New RegControl.N650-N630 transformer=trans_N650-N630 winding=2 vreg=120 band=2 ptratio=20 ctprim=700 R=3 X=7.5


New Transformer.T633-634 phases=3 windings=2
~ wdg=1 conn=wye Kv=2.4 kva=10000.0 %R=0.0055 bus=N633
~ wdg=2 conn=wye Kv=0.48 kva=1000.0 %R=0.0055 bus=N634 XHL=0.02

New Transformer.xfmr_652_A_1 phases=1 windings=3
~ wdg=1 bus=xfmr_meter_652_A_1.1 Kv=2.4 kva=10000.0 %r=0.003
~ wdg=2 bus=trip_node_652_A_1.1.0 Kv=0.12 kva=1000.0 %r=0.006
~ wdg=3 bus=trip_node_652_A_1.0.2 Kv=0.12 kva=1000.0 %r=0.006 Xhl=2.04  Xht=2.04  Xlt=1.36

New Transformer.xfmr_652_A_2 phases=1 windings=3
~ wdg=1 bus=xfmr_meter_652_A_2.1 Kv=2.4 kva=10000.0 %r=0.003
~ wdg=2 bus=trip_node_652_A_2.1.0 Kv=0.12 kva=1000.0 %r=0.006
~ wdg=3 bus=trip_node_652_A_2.0.2 Kv=0.12 kva=1000.0 %r=0.006 Xhl=2.04  Xht=2.04  Xlt=1.36

New Transformer.xfmr_652_A_3 phases=1 windings=3
~ wdg=1 bus=xfmr_meter_652_A_3.1 Kv=2.4 kva=10000.0 %r=0.003
~ wdg=2 bus=trip_node_652_A_3.1.0 Kv=0.12 kva=1000.0 %r=0.006
~ wdg=3 bus=trip_node_652_A_3.0.2 Kv=0.12 kva=1000.0 %r=0.006 Xhl=2.04  Xht=2.04  Xlt=1.36

New Transformer.xfmr_652_A_4 phases=1 windings=3
~ wdg=1 bus=xfmr_meter_652_A_4.1 Kv=2.4 kva=10000.0 %r=0.003
~ wdg=2 bus=trip_node_652_A_4.1.0 Kv=0.12 kva=1000.0 %r=0.006
~ wdg=3 bus=trip_node_652_A_4.0.2 Kv=0.12 kva=1000.0 %r=0.006 Xhl=2.04  Xht=2.04  Xlt=1.36

New Transformer.xfmr_652_A_5 phases=1 windings=3
~ wdg=1 bus=xfmr_meter_652_A_5.1 Kv=2.4 kva=10000.0 %r=0.003
~ wdg=2 bus=trip_node_652_A_5.1.0 Kv=0.12 kva=1000.0 %r=0.006
~ wdg=3 bus=trip_node_652_A_5.0.2 Kv=0.12 kva=1000.0 %r=0.006 Xhl=2.04  Xht=2.04  Xlt=1.36

New Transformer.xfmr_611_C_1 phases=1 windings=3
~ wdg=1 bus=xfmr_meter_611_C_1.3 Kv=2.4 kva=10000.0 %r=0.003
~ wdg=2 bus=trip_node_611_C_1.1.0 Kv=0.12 kva=1000.0 %r=0.006
~ wdg=3 bus=trip_node_611_C_1.0.2 Kv=0.12 kva=1000.0 %r=0.006 Xhl=2.04  Xht=2.04  Xlt=1.36

New Transformer.xfmr_611_C_2 phases=1 windings=3
~ wdg=1 bus=xfmr_meter_611_C_2.3 Kv=2.4 kva=10000.0 %r=0.003
~ wdg=2 bus=trip_node_611_C_2.1.0 Kv=0.12 kva=1000.0 %r=0.006
~ wdg=3 bus=trip_node_611_C_2.0.2 Kv=0.12 kva=1000.0 %r=0.006 Xhl=2.04  Xht=2.04  Xlt=1.36

New Transformer.xfmr_611_C_3 phases=1 windings=3
~ wdg=1 bus=xfmr_meter_611_C_3.3 Kv=2.4 kva=10000.0 %r=0.003
~ wdg=2 bus=trip_node_611_C_3.1.0 Kv=0.12 kva=1000.0 %r=0.006
~ wdg=3 bus=trip_node_611_C_3.0.2 Kv=0.12 kva=1000.0 %r=0.006 Xhl=2.04  Xht=2.04  Xlt=1.36

New Transformer.xfmr_611_C_4 phases=1 windings=3
~ wdg=1 bus=xfmr_meter_611_C_4.3 Kv=2.4 kva=10000.0 %r=0.003
~ wdg=2 bus=trip_node_611_C_4.1.0 Kv=0.12 kva=1000.0 %r=0.006
~ wdg=3 bus=trip_node_611_C_4.0.2 Kv=0.12 kva=1000.0 %r=0.006 Xhl=2.04  Xht=2.04  Xlt=1.36

New Transformer.xfmr_611_C_5 phases=1 windings=3
~ wdg=1 bus=xfmr_meter_611_C_5.3 Kv=2.4 kva=10000.0 %r=0.003
~ wdg=2 bus=trip_node_611_C_5.1.0 Kv=0.12 kva=1000.0 %r=0.006
~ wdg=3 bus=trip_node_611_C_5.0.2 Kv=0.12 kva=1000.0 %r=0.006 Xhl=2.04  Xht=2.04  Xlt=1.36

New Transformer.xfmr_684_C_1 phases=1 windings=3
~ wdg=1 bus=xfmr_meter_684_C_1.3 Kv=2.4 kva=10000.0 %r=0.003
~ wdg=2 bus=trip_node_684_C_1.1.0 Kv=0.12 kva=1000.0 %r=0.006
~ wdg=3 bus=trip_node_684_C_1.0.2 Kv=0.12 kva=1000.0 %r=0.006 Xhl=2.04  Xht=2.04  Xlt=1.36

New Transformer.xfmr_684_C_2 phases=1 windings=3
~ wdg=1 bus=xfmr_meter_684_C_2.3 Kv=2.4 kva=10000.0 %r=0.003
~ wdg=2 bus=trip_node_684_C_2.1.0 Kv=0.12 kva=1000.0 %r=0.006
~ wdg=3 bus=trip_node_684_C_2.0.2 Kv=0.12 kva=1000.0 %r=0.006 Xhl=2.04  Xht=2.04  Xlt=1.36

New Transformer.xfmr_684_C_3 phases=1 windings=3
~ wdg=1 bus=xfmr_meter_684_C_3.3 Kv=2.4 kva=10000.0 %r=0.003
~ wdg=2 bus=trip_node_684_C_3.1.0 Kv=0.12 kva=1000.0 %r=0.006
~ wdg=3 bus=trip_node_684_C_3.0.2 Kv=0.12 kva=1000.0 %r=0.006 Xhl=2.04  Xht=2.04  Xlt=1.36

New Transformer.xfmr_684_C_4 phases=1 windings=3
~ wdg=1 bus=xfmr_meter_684_C_4.3 Kv=2.4 kva=10000.0 %r=0.003
~ wdg=2 bus=trip_node_684_C_4.1.0 Kv=0.12 kva=1000.0 %r=0.006
~ wdg=3 bus=trip_node_684_C_4.0.2 Kv=0.12 kva=1000.0 %r=0.006 Xhl=2.04  Xht=2.04  Xlt=1.36

New Transformer.xfmr_684_C_5 phases=1 windings=3
~ wdg=1 bus=xfmr_meter_684_C_5.3 Kv=2.4 kva=10000.0 %r=0.003
~ wdg=2 bus=trip_node_684_C_5.1.0 Kv=0.12 kva=1000.0 %r=0.006
~ wdg=3 bus=trip_node_684_C_5.0.2 Kv=0.12 kva=1000.0 %r=0.006 Xhl=2.04  Xht=2.04  Xlt=1.36

New Transformer.xfmr_684_A_1 phases=1 windings=3
~ wdg=1 bus=xfmr_meter_684_A_1.1 Kv=2.4 kva=10000.0 %r=0.003
~ wdg=2 bus=trip_node_684_A_1.1.0 Kv=0.12 kva=1000.0 %r=0.006
~ wdg=3 bus=trip_node_684_A_1.0.2 Kv=0.12 kva=1000.0 %r=0.006 Xhl=2.04  Xht=2.04  Xlt=1.36

New Transformer.xfmr_684_A_2 phases=1 windings=3
~ wdg=1 bus=xfmr_meter_684_A_2.1 Kv=2.4 kva=10000.0 %r=0.003
~ wdg=2 bus=trip_node_684_A_2.1.0 Kv=0.12 kva=1000.0 %r=0.006
~ wdg=3 bus=trip_node_684_A_2.0.2 Kv=0.12 kva=1000.0 %r=0.006 Xhl=2.04  Xht=2.04  Xlt=1.36

New Transformer.xfmr_684_A_3 phases=1 windings=3
~ wdg=1 bus=xfmr_meter_684_A_3.1 Kv=2.4 kva=10000.0 %r=0.003
~ wdg=2 bus=trip_node_684_A_3.1.0 Kv=0.12 kva=1000.0 %r=0.006
~ wdg=3 bus=trip_node_684_A_3.0.2 Kv=0.12 kva=1000.0 %r=0.006 Xhl=2.04  Xht=2.04  Xlt=1.36

New Transformer.xfmr_684_A_4 phases=1 windings=3
~ wdg=1 bus=xfmr_meter_684_A_4.1 Kv=2.4 kva=10000.0 %r=0.003
~ wdg=2 bus=trip_node_684_A_4.1.0 Kv=0.12 kva=1000.0 %r=0.006
~ wdg=3 bus=trip_node_684_A_4.0.2 Kv=0.12 kva=1000.0 %r=0.006 Xhl=2.04  Xht=2.04  Xlt=1.36

New Transformer.xfmr_684_A_5 phases=1 windings=3
~ wdg=1 bus=xfmr_meter_684_A_5.1 Kv=2.4 kva=10000.0 %r=0.003
~ wdg=2 bus=trip_node_684_A_5.1.0 Kv=0.12 kva=1000.0 %r=0.006
~ wdg=3 bus=trip_node_684_A_5.0.2 Kv=0.12 kva=1000.0 %r=0.006 Xhl=2.04  Xht=2.04  Xlt=1.36

New Transformer.xfmr_645_B_1 phases=1 windings=3
~ wdg=1 bus=xfmr_meter_645_B_1.2 Kv=2.4 kva=10000.0 %r=0.003
~ wdg=2 bus=trip_node_645_B_1.1.0 Kv=0.12 kva=1000.0 %r=0.006
~ wdg=3 bus=trip_node_645_B_1.0.2 Kv=0.12 kva=1000.0 %r=0.006 Xhl=2.04  Xht=2.04  Xlt=1.36

New Transformer.xfmr_645_B_2 phases=1 windings=3
~ wdg=1 bus=xfmr_meter_645_B_2.2 Kv=2.4 kva=10000.0 %r=0.003
~ wdg=2 bus=trip_node_645_B_2.1.0 Kv=0.12 kva=1000.0 %r=0.006
~ wdg=3 bus=trip_node_645_B_2.0.2 Kv=0.12 kva=1000.0 %r=0.006 Xhl=2.04  Xht=2.04  Xlt=1.36

New Transformer.xfmr_645_B_3 phases=1 windings=3
~ wdg=1 bus=xfmr_meter_645_B_3.2 Kv=2.4 kva=10000.0 %r=0.003
~ wdg=2 bus=trip_node_645_B_3.1.0 Kv=0.12 kva=1000.0 %r=0.006
~ wdg=3 bus=trip_node_645_B_3.0.2 Kv=0.12 kva=1000.0 %r=0.006 Xhl=2.04  Xht=2.04  Xlt=1.36

New Transformer.xfmr_645_B_4 phases=1 windings=3
~ wdg=1 bus=xfmr_meter_645_B_4.2 Kv=2.4 kva=10000.0 %r=0.003
~ wdg=2 bus=trip_node_645_B_4.1.0 Kv=0.12 kva=1000.0 %r=0.006
~ wdg=3 bus=trip_node_645_B_4.0.2 Kv=0.12 kva=1000.0 %r=0.006 Xhl=2.04  Xht=2.04  Xlt=1.36

New Transformer.xfmr_645_B_5 phases=1 windings=3
~ wdg=1 bus=xfmr_meter_645_B_5.2 Kv=2.4 kva=10000.0 %r=0.003
~ wdg=2 bus=trip_node_645_B_5.1.0 Kv=0.12 kva=1000.0 %r=0.006
~ wdg=3 bus=trip_node_645_B_5.0.2 Kv=0.12 kva=1000.0 %r=0.006 Xhl=2.04  Xht=2.04  Xlt=1.36

New Transformer.xfmr_645_C_1 phases=1 windings=3
~ wdg=1 bus=xfmr_meter_645_C_1.3 Kv=2.4 kva=10000.0 %r=0.003
~ wdg=2 bus=trip_node_645_C_1.1.0 Kv=0.12 kva=1000.0 %r=0.006
~ wdg=3 bus=trip_node_645_C_1.0.2 Kv=0.12 kva=1000.0 %r=0.006 Xhl=2.04  Xht=2.04  Xlt=1.36

New Transformer.xfmr_645_C_2 phases=1 windings=3
~ wdg=1 bus=xfmr_meter_645_C_2.3 Kv=2.4 kva=10000.0 %r=0.003
~ wdg=2 bus=trip_node_645_C_2.1.0 Kv=0.12 kva=1000.0 %r=0.006
~ wdg=3 bus=trip_node_645_C_2.0.2 Kv=0.12 kva=1000.0 %r=0.006 Xhl=2.04  Xht=2.04  Xlt=1.36

New Transformer.xfmr_645_C_3 phases=1 windings=3
~ wdg=1 bus=xfmr_meter_645_C_3.3 Kv=2.4 kva=10000.0 %r=0.003
~ wdg=2 bus=trip_node_645_C_3.1.0 Kv=0.12 kva=1000.0 %r=0.006
~ wdg=3 bus=trip_node_645_C_3.0.2 Kv=0.12 kva=1000.0 %r=0.006 Xhl=2.04  Xht=2.04  Xlt=1.36

New Transformer.xfmr_645_C_4 phases=1 windings=3
~ wdg=1 bus=xfmr_meter_645_C_4.3 Kv=2.4 kva=10000.0 %r=0.003
~ wdg=2 bus=trip_node_645_C_4.1.0 Kv=0.12 kva=1000.0 %r=0.006
~ wdg=3 bus=trip_node_645_C_4.0.2 Kv=0.12 kva=1000.0 %r=0.006 Xhl=2.04  Xht=2.04  Xlt=1.36

New Transformer.xfmr_645_C_5 phases=1 windings=3
~ wdg=1 bus=xfmr_meter_645_C_5.3 Kv=2.4 kva=10000.0 %r=0.003
~ wdg=2 bus=trip_node_645_C_5.1.0 Kv=0.12 kva=1000.0 %r=0.006
~ wdg=3 bus=trip_node_645_C_5.0.2 Kv=0.12 kva=1000.0 %r=0.006 Xhl=2.04  Xht=2.04  Xlt=1.36

New Transformer.xfmr_633_A_1 phases=1 windings=3
~ wdg=1 bus=xfmr_meter_633_A_1.1 Kv=2.4 kva=10000.0 %r=0.003
~ wdg=2 bus=trip_node_633_A_1.1.0 Kv=0.12 kva=1000.0 %r=0.006
~ wdg=3 bus=trip_node_633_A_1.0.2 Kv=0.12 kva=1000.0 %r=0.006 Xhl=2.04  Xht=2.04  Xlt=1.36

New Transformer.xfmr_633_A_2 phases=1 windings=3
~ wdg=1 bus=xfmr_meter_633_A_2.1 Kv=2.4 kva=10000.0 %r=0.003
~ wdg=2 bus=trip_node_633_A_2.1.0 Kv=0.12 kva=1000.0 %r=0.006
~ wdg=3 bus=trip_node_633_A_2.0.2 Kv=0.12 kva=1000.0 %r=0.006 Xhl=2.04  Xht=2.04  Xlt=1.36

New Transformer.xfmr_633_A_3 phases=1 windings=3
~ wdg=1 bus=xfmr_meter_633_A_3.1 Kv=2.4 kva=10000.0 %r=0.003
~ wdg=2 bus=trip_node_633_A_3.1.0 Kv=0.12 kva=1000.0 %r=0.006
~ wdg=3 bus=trip_node_633_A_3.0.2 Kv=0.12 kva=1000.0 %r=0.006 Xhl=2.04  Xht=2.04  Xlt=1.36

New Transformer.xfmr_633_A_4 phases=1 windings=3
~ wdg=1 bus=xfmr_meter_633_A_4.1 Kv=2.4 kva=10000.0 %r=0.003
~ wdg=2 bus=trip_node_633_A_4.1.0 Kv=0.12 kva=1000.0 %r=0.006
~ wdg=3 bus=trip_node_633_A_4.0.2 Kv=0.12 kva=1000.0 %r=0.006 Xhl=2.04  Xht=2.04  Xlt=1.36

New Transformer.xfmr_633_A_5 phases=1 windings=3
~ wdg=1 bus=xfmr_meter_633_A_5.1 Kv=2.4 kva=10000.0 %r=0.003
~ wdg=2 bus=trip_node_633_A_5.1.0 Kv=0.12 kva=1000.0 %r=0.006
~ wdg=3 bus=trip_node_633_A_5.0.2 Kv=0.12 kva=1000.0 %r=0.006 Xhl=2.04  Xht=2.04  Xlt=1.36

New Transformer.xfmr_633_B_1 phases=1 windings=3
~ wdg=1 bus=xfmr_meter_633_B_1.2 Kv=2.4 kva=10000.0 %r=0.003
~ wdg=2 bus=trip_node_633_B_1.1.0 Kv=0.12 kva=1000.0 %r=0.006
~ wdg=3 bus=trip_node_633_B_1.0.2 Kv=0.12 kva=1000.0 %r=0.006 Xhl=2.04  Xht=2.04  Xlt=1.36

New Transformer.xfmr_633_B_2 phases=1 windings=3
~ wdg=1 bus=xfmr_meter_633_B_2.2 Kv=2.4 kva=10000.0 %r=0.003
~ wdg=2 bus=trip_node_633_B_2.1.0 Kv=0.12 kva=1000.0 %r=0.006
~ wdg=3 bus=trip_node_633_B_2.0.2 Kv=0.12 kva=1000.0 %r=0.006 Xhl=2.04  Xht=2.04  Xlt=1.36

New Transformer.xfmr_633_B_3 phases=1 windings=3
~ wdg=1 bus=xfmr_meter_633_B_3.2 Kv=2.4 kva=10000.0 %r=0.003
~ wdg=2 bus=trip_node_633_B_3.1.0 Kv=0.12 kva=1000.0 %r=0.006
~ wdg=3 bus=trip_node_633_B_3.0.2 Kv=0.12 kva=1000.0 %r=0.006 Xhl=2.04  Xht=2.04  Xlt=1.36

New Transformer.xfmr_633_B_4 phases=1 windings=3
~ wdg=1 bus=xfmr_meter_633_B_4.2 Kv=2.4 kva=10000.0 %r=0.003
~ wdg=2 bus=trip_node_633_B_4.1.0 Kv=0.12 kva=1000.0 %r=0.006
~ wdg=3 bus=trip_node_633_B_4.0.2 Kv=0.12 kva=1000.0 %r=0.006 Xhl=2.04  Xht=2.04  Xlt=1.36

New Transformer.xfmr_633_B_5 phases=1 windings=3
~ wdg=1 bus=xfmr_meter_633_B_5.2 Kv=2.4 kva=10000.0 %r=0.003
~ wdg=2 bus=trip_node_633_B_5.1.0 Kv=0.12 kva=1000.0 %r=0.006
~ wdg=3 bus=trip_node_633_B_5.0.2 Kv=0.12 kva=1000.0 %r=0.006 Xhl=2.04  Xht=2.04  Xlt=1.36

New Transformer.xfmr_633_C_1 phases=1 windings=3
~ wdg=1 bus=xfmr_meter_633_C_1.3 Kv=2.4 kva=10000.0 %r=0.003
~ wdg=2 bus=trip_node_633_C_1.1.0 Kv=0.12 kva=1000.0 %r=0.006
~ wdg=3 bus=trip_node_633_C_1.0.2 Kv=0.12 kva=1000.0 %r=0.006 Xhl=2.04  Xht=2.04  Xlt=1.36

New Transformer.xfmr_633_C_2 phases=1 windings=3
~ wdg=1 bus=xfmr_meter_633_C_2.3 Kv=2.4 kva=10000.0 %r=0.003
~ wdg=2 bus=trip_node_633_C_2.1.0 Kv=0.12 kva=1000.0 %r=0.006
~ wdg=3 bus=trip_node_633_C_2.0.2 Kv=0.12 kva=1000.0 %r=0.006 Xhl=2.04  Xht=2.04  Xlt=1.36

New Transformer.xfmr_633_C_3 phases=1 windings=3
~ wdg=1 bus=xfmr_meter_633_C_3.3 Kv=2.4 kva=10000.0 %r=0.003
~ wdg=2 bus=trip_node_633_C_3.1.0 Kv=0.12 kva=1000.0 %r=0.006
~ wdg=3 bus=trip_node_633_C_3.0.2 Kv=0.12 kva=1000.0 %r=0.006 Xhl=2.04  Xht=2.04  Xlt=1.36

New Transformer.xfmr_633_C_4 phases=1 windings=3
~ wdg=1 bus=xfmr_meter_633_C_4.3 Kv=2.4 kva=10000.0 %r=0.003
~ wdg=2 bus=trip_node_633_C_4.1.0 Kv=0.12 kva=1000.0 %r=0.006
~ wdg=3 bus=trip_node_633_C_4.0.2 Kv=0.12 kva=1000.0 %r=0.006 Xhl=2.04  Xht=2.04  Xlt=1.36

New Transformer.xfmr_633_C_5 phases=1 windings=3
~ wdg=1 bus=xfmr_meter_633_C_5.3 Kv=2.4 kva=10000.0 %r=0.003
~ wdg=2 bus=trip_node_633_C_5.1.0 Kv=0.12 kva=1000.0 %r=0.006
~ wdg=3 bus=trip_node_633_C_5.0.2 Kv=0.12 kva=1000.0 %r=0.006 Xhl=2.04  Xht=2.04  Xlt=1.36

New Transformer.xfmr_632_A_1 phases=1 windings=3
~ wdg=1 bus=xfmr_meter_632_A_1.1 Kv=2.4 kva=10000.0 %r=0.003
~ wdg=2 bus=trip_node_632_A_1.1.0 Kv=0.12 kva=1000.0 %r=0.006
~ wdg=3 bus=trip_node_632_A_1.0.2 Kv=0.12 kva=1000.0 %r=0.006 Xhl=2.04  Xht=2.04  Xlt=1.36

New Transformer.xfmr_632_A_2 phases=1 windings=3
~ wdg=1 bus=xfmr_meter_632_A_2.1 Kv=2.4 kva=10000.0 %r=0.003
~ wdg=2 bus=trip_node_632_A_2.1.0 Kv=0.12 kva=1000.0 %r=0.006
~ wdg=3 bus=trip_node_632_A_2.0.2 Kv=0.12 kva=1000.0 %r=0.006 Xhl=2.04  Xht=2.04  Xlt=1.36

New Transformer.xfmr_632_A_3 phases=1 windings=3
~ wdg=1 bus=xfmr_meter_632_A_3.1 Kv=2.4 kva=10000.0 %r=0.003
~ wdg=2 bus=trip_node_632_A_3.1.0 Kv=0.12 kva=1000.0 %r=0.006
~ wdg=3 bus=trip_node_632_A_3.0.2 Kv=0.12 kva=1000.0 %r=0.006 Xhl=2.04  Xht=2.04  Xlt=1.36

New Transformer.xfmr_632_A_4 phases=1 windings=3
~ wdg=1 bus=xfmr_meter_632_A_4.1 Kv=2.4 kva=10000.0 %r=0.003
~ wdg=2 bus=trip_node_632_A_4.1.0 Kv=0.12 kva=1000.0 %r=0.006
~ wdg=3 bus=trip_node_632_A_4.0.2 Kv=0.12 kva=1000.0 %r=0.006 Xhl=2.04  Xht=2.04  Xlt=1.36

New Transformer.xfmr_632_A_5 phases=1 windings=3
~ wdg=1 bus=xfmr_meter_632_A_5.1 Kv=2.4 kva=10000.0 %r=0.003
~ wdg=2 bus=trip_node_632_A_5.1.0 Kv=0.12 kva=1000.0 %r=0.006
~ wdg=3 bus=trip_node_632_A_5.0.2 Kv=0.12 kva=1000.0 %r=0.006 Xhl=2.04  Xht=2.04  Xlt=1.36

New Transformer.xfmr_632_B_1 phases=1 windings=3
~ wdg=1 bus=xfmr_meter_632_B_1.2 Kv=2.4 kva=10000.0 %r=0.003
~ wdg=2 bus=trip_node_632_B_1.1.0 Kv=0.12 kva=1000.0 %r=0.006
~ wdg=3 bus=trip_node_632_B_1.0.2 Kv=0.12 kva=1000.0 %r=0.006 Xhl=2.04  Xht=2.04  Xlt=1.36

New Transformer.xfmr_632_B_2 phases=1 windings=3
~ wdg=1 bus=xfmr_meter_632_B_2.2 Kv=2.4 kva=10000.0 %r=0.003
~ wdg=2 bus=trip_node_632_B_2.1.0 Kv=0.12 kva=1000.0 %r=0.006
~ wdg=3 bus=trip_node_632_B_2.0.2 Kv=0.12 kva=1000.0 %r=0.006 Xhl=2.04  Xht=2.04  Xlt=1.36

New Transformer.xfmr_632_B_3 phases=1 windings=3
~ wdg=1 bus=xfmr_meter_632_B_3.2 Kv=2.4 kva=10000.0 %r=0.003
~ wdg=2 bus=trip_node_632_B_3.1.0 Kv=0.12 kva=1000.0 %r=0.006
~ wdg=3 bus=trip_node_632_B_3.0.2 Kv=0.12 kva=1000.0 %r=0.006 Xhl=2.04  Xht=2.04  Xlt=1.36

New Transformer.xfmr_632_B_4 phases=1 windings=3
~ wdg=1 bus=xfmr_meter_632_B_4.2 Kv=2.4 kva=10000.0 %r=0.003
~ wdg=2 bus=trip_node_632_B_4.1.0 Kv=0.12 kva=1000.0 %r=0.006
~ wdg=3 bus=trip_node_632_B_4.0.2 Kv=0.12 kva=1000.0 %r=0.006 Xhl=2.04  Xht=2.04  Xlt=1.36

New Transformer.xfmr_632_B_5 phases=1 windings=3
~ wdg=1 bus=xfmr_meter_632_B_5.2 Kv=2.4 kva=10000.0 %r=0.003
~ wdg=2 bus=trip_node_632_B_5.1.0 Kv=0.12 kva=1000.0 %r=0.006
~ wdg=3 bus=trip_node_632_B_5.0.2 Kv=0.12 kva=1000.0 %r=0.006 Xhl=2.04  Xht=2.04  Xlt=1.36

New Transformer.xfmr_632_C_1 phases=1 windings=3
~ wdg=1 bus=xfmr_meter_632_C_1.3 Kv=2.4 kva=10000.0 %r=0.003
~ wdg=2 bus=trip_node_632_C_1.1.0 Kv=0.12 kva=1000.0 %r=0.006
~ wdg=3 bus=trip_node_632_C_1.0.2 Kv=0.12 kva=1000.0 %r=0.006 Xhl=2.04  Xht=2.04  Xlt=1.36

New Transformer.xfmr_632_C_2 phases=1 windings=3
~ wdg=1 bus=xfmr_meter_632_C_2.3 Kv=2.4 kva=10000.0 %r=0.003
~ wdg=2 bus=trip_node_632_C_2.1.0 Kv=0.12 kva=1000.0 %r=0.006
~ wdg=3 bus=trip_node_632_C_2.0.2 Kv=0.12 kva=1000.0 %r=0.006 Xhl=2.04  Xht=2.04  Xlt=1.36

New Transformer.xfmr_632_C_3 phases=1 windings=3
~ wdg=1 bus=xfmr_meter_632_C_3.3 Kv=2.4 kva=10000.0 %r=0.003
~ wdg=2 bus=trip_node_632_C_3.1.0 Kv=0.12 kva=1000.0 %r=0.006
~ wdg=3 bus=trip_node_632_C_3.0.2 Kv=0.12 kva=1000.0 %r=0.006 Xhl=2.04  Xht=2.04  Xlt=1.36

New Transformer.xfmr_632_C_4 phases=1 windings=3
~ wdg=1 bus=xfmr_meter_632_C_4.3 Kv=2.4 kva=10000.0 %r=0.003
~ wdg=2 bus=trip_node_632_C_4.1.0 Kv=0.12 kva=1000.0 %r=0.006
~ wdg=3 bus=trip_node_632_C_4.0.2 Kv=0.12 kva=1000.0 %r=0.006 Xhl=2.04  Xht=2.04  Xlt=1.36

New Transformer.xfmr_632_C_5 phases=1 windings=3
~ wdg=1 bus=xfmr_meter_632_C_5.3 Kv=2.4 kva=10000.0 %r=0.003
~ wdg=2 bus=trip_node_632_C_5.1.0 Kv=0.12 kva=1000.0 %r=0.006
~ wdg=3 bus=trip_node_632_C_5.0.2 Kv=0.12 kva=1000.0 %r=0.006 Xhl=2.04  Xht=2.04  Xlt=1.36

New Transformer.xfmr_692_A_1 phases=1 windings=3
~ wdg=1 bus=xfmr_meter_692_A_1.1 Kv=2.4 kva=10000.0 %r=0.003
~ wdg=2 bus=trip_node_692_A_1.1.0 Kv=0.12 kva=1000.0 %r=0.006
~ wdg=3 bus=trip_node_692_A_1.0.2 Kv=0.12 kva=1000.0 %r=0.006 Xhl=2.04  Xht=2.04  Xlt=1.36

New Transformer.xfmr_692_A_2 phases=1 windings=3
~ wdg=1 bus=xfmr_meter_692_A_2.1 Kv=2.4 kva=10000.0 %r=0.003
~ wdg=2 bus=trip_node_692_A_2.1.0 Kv=0.12 kva=1000.0 %r=0.006
~ wdg=3 bus=trip_node_692_A_2.0.2 Kv=0.12 kva=1000.0 %r=0.006 Xhl=2.04  Xht=2.04  Xlt=1.36

New Transformer.xfmr_692_A_3 phases=1 windings=3
~ wdg=1 bus=xfmr_meter_692_A_3.1 Kv=2.4 kva=10000.0 %r=0.003
~ wdg=2 bus=trip_node_692_A_3.1.0 Kv=0.12 kva=1000.0 %r=0.006
~ wdg=3 bus=trip_node_692_A_3.0.2 Kv=0.12 kva=1000.0 %r=0.006 Xhl=2.04  Xht=2.04  Xlt=1.36

New Transformer.xfmr_692_A_4 phases=1 windings=3
~ wdg=1 bus=xfmr_meter_692_A_4.1 Kv=2.4 kva=10000.0 %r=0.003
~ wdg=2 bus=trip_node_692_A_4.1.0 Kv=0.12 kva=1000.0 %r=0.006
~ wdg=3 bus=trip_node_692_A_4.0.2 Kv=0.12 kva=1000.0 %r=0.006 Xhl=2.04  Xht=2.04  Xlt=1.36

New Transformer.xfmr_692_A_5 phases=1 windings=3
~ wdg=1 bus=xfmr_meter_692_A_5.1 Kv=2.4 kva=10000.0 %r=0.003
~ wdg=2 bus=trip_node_692_A_5.1.0 Kv=0.12 kva=1000.0 %r=0.006
~ wdg=3 bus=trip_node_692_A_5.0.2 Kv=0.12 kva=1000.0 %r=0.006 Xhl=2.04  Xht=2.04  Xlt=1.36

New Transformer.xfmr_692_B_1 phases=1 windings=3
~ wdg=1 bus=xfmr_meter_692_B_1.2 Kv=2.4 kva=10000.0 %r=0.003
~ wdg=2 bus=trip_node_692_B_1.1.0 Kv=0.12 kva=1000.0 %r=0.006
~ wdg=3 bus=trip_node_692_B_1.0.2 Kv=0.12 kva=1000.0 %r=0.006 Xhl=2.04  Xht=2.04  Xlt=1.36

New Transformer.xfmr_692_B_2 phases=1 windings=3
~ wdg=1 bus=xfmr_meter_692_B_2.2 Kv=2.4 kva=10000.0 %r=0.003
~ wdg=2 bus=trip_node_692_B_2.1.0 Kv=0.12 kva=1000.0 %r=0.006
~ wdg=3 bus=trip_node_692_B_2.0.2 Kv=0.12 kva=1000.0 %r=0.006 Xhl=2.04  Xht=2.04  Xlt=1.36

New Transformer.xfmr_692_B_3 phases=1 windings=3
~ wdg=1 bus=xfmr_meter_692_B_3.2 Kv=2.4 kva=10000.0 %r=0.003
~ wdg=2 bus=trip_node_692_B_3.1.0 Kv=0.12 kva=1000.0 %r=0.006
~ wdg=3 bus=trip_node_692_B_3.0.2 Kv=0.12 kva=1000.0 %r=0.006 Xhl=2.04  Xht=2.04  Xlt=1.36

New Transformer.xfmr_692_B_4 phases=1 windings=3
~ wdg=1 bus=xfmr_meter_692_B_4.2 Kv=2.4 kva=10000.0 %r=0.003
~ wdg=2 bus=trip_node_692_B_4.1.0 Kv=0.12 kva=1000.0 %r=0.006
~ wdg=3 bus=trip_node_692_B_4.0.2 Kv=0.12 kva=1000.0 %r=0.006 Xhl=2.04  Xht=2.04  Xlt=1.36

New Transformer.xfmr_692_B_5 phases=1 windings=3
~ wdg=1 bus=xfmr_meter_692_B_5.2 Kv=2.4 kva=10000.0 %r=0.003
~ wdg=2 bus=trip_node_692_B_5.1.0 Kv=0.12 kva=1000.0 %r=0.006
~ wdg=3 bus=trip_node_692_B_5.0.2 Kv=0.12 kva=1000.0 %r=0.006 Xhl=2.04  Xht=2.04  Xlt=1.36

New Transformer.xfmr_692_C_1 phases=1 windings=3
~ wdg=1 bus=xfmr_meter_692_C_1.3 Kv=2.4 kva=10000.0 %r=0.003
~ wdg=2 bus=trip_node_692_C_1.1.0 Kv=0.12 kva=1000.0 %r=0.006
~ wdg=3 bus=trip_node_692_C_1.0.2 Kv=0.12 kva=1000.0 %r=0.006 Xhl=2.04  Xht=2.04  Xlt=1.36

New Transformer.xfmr_692_C_2 phases=1 windings=3
~ wdg=1 bus=xfmr_meter_692_C_2.3 Kv=2.4 kva=10000.0 %r=0.003
~ wdg=2 bus=trip_node_692_C_2.1.0 Kv=0.12 kva=1000.0 %r=0.006
~ wdg=3 bus=trip_node_692_C_2.0.2 Kv=0.12 kva=1000.0 %r=0.006 Xhl=2.04  Xht=2.04  Xlt=1.36

New Transformer.xfmr_692_C_3 phases=1 windings=3
~ wdg=1 bus=xfmr_meter_692_C_3.3 Kv=2.4 kva=10000.0 %r=0.003
~ wdg=2 bus=trip_node_692_C_3.1.0 Kv=0.12 kva=1000.0 %r=0.006
~ wdg=3 bus=trip_node_692_C_3.0.2 Kv=0.12 kva=1000.0 %r=0.006 Xhl=2.04  Xht=2.04  Xlt=1.36

New Transformer.xfmr_692_C_4 phases=1 windings=3
~ wdg=1 bus=xfmr_meter_692_C_4.3 Kv=2.4 kva=10000.0 %r=0.003
~ wdg=2 bus=trip_node_692_C_4.1.0 Kv=0.12 kva=1000.0 %r=0.006
~ wdg=3 bus=trip_node_692_C_4.0.2 Kv=0.12 kva=1000.0 %r=0.006 Xhl=2.04  Xht=2.04  Xlt=1.36

New Transformer.xfmr_692_C_5 phases=1 windings=3
~ wdg=1 bus=xfmr_meter_692_C_5.3 Kv=2.4 kva=10000.0 %r=0.003
~ wdg=2 bus=trip_node_692_C_5.1.0 Kv=0.12 kva=1000.0 %r=0.006
~ wdg=3 bus=trip_node_692_C_5.0.2 Kv=0.12 kva=1000.0 %r=0.006 Xhl=2.04  Xht=2.04  Xlt=1.36

New Transformer.xfmr_675_A_1 phases=1 windings=3
~ wdg=1 bus=xfmr_meter_675_A_1.1 Kv=2.4 kva=10000.0 %r=0.003
~ wdg=2 bus=trip_node_675_A_1.1.0 Kv=0.12 kva=1000.0 %r=0.006
~ wdg=3 bus=trip_node_675_A_1.0.2 Kv=0.12 kva=1000.0 %r=0.006 Xhl=2.04  Xht=2.04  Xlt=1.36

New Transformer.xfmr_675_A_2 phases=1 windings=3
~ wdg=1 bus=xfmr_meter_675_A_2.1 Kv=2.4 kva=10000.0 %r=0.003
~ wdg=2 bus=trip_node_675_A_2.1.0 Kv=0.12 kva=1000.0 %r=0.006
~ wdg=3 bus=trip_node_675_A_2.0.2 Kv=0.12 kva=1000.0 %r=0.006 Xhl=2.04  Xht=2.04  Xlt=1.36

New Transformer.xfmr_675_A_3 phases=1 windings=3
~ wdg=1 bus=xfmr_meter_675_A_3.1 Kv=2.4 kva=10000.0 %r=0.003
~ wdg=2 bus=trip_node_675_A_3.1.0 Kv=0.12 kva=1000.0 %r=0.006
~ wdg=3 bus=trip_node_675_A_3.0.2 Kv=0.12 kva=1000.0 %r=0.006 Xhl=2.04  Xht=2.04  Xlt=1.36

New Transformer.xfmr_675_A_4 phases=1 windings=3
~ wdg=1 bus=xfmr_meter_675_A_4.1 Kv=2.4 kva=10000.0 %r=0.003
~ wdg=2 bus=trip_node_675_A_4.1.0 Kv=0.12 kva=1000.0 %r=0.006
~ wdg=3 bus=trip_node_675_A_4.0.2 Kv=0.12 kva=1000.0 %r=0.006 Xhl=2.04  Xht=2.04  Xlt=1.36

New Transformer.xfmr_675_A_5 phases=1 windings=3
~ wdg=1 bus=xfmr_meter_675_A_5.1 Kv=2.4 kva=10000.0 %r=0.003
~ wdg=2 bus=trip_node_675_A_5.1.0 Kv=0.12 kva=1000.0 %r=0.006
~ wdg=3 bus=trip_node_675_A_5.0.2 Kv=0.12 kva=1000.0 %r=0.006 Xhl=2.04  Xht=2.04  Xlt=1.36

New Transformer.xfmr_675_B_1 phases=1 windings=3
~ wdg=1 bus=xfmr_meter_675_B_1.2 Kv=2.4 kva=10000.0 %r=0.003
~ wdg=2 bus=trip_node_675_B_1.1.0 Kv=0.12 kva=1000.0 %r=0.006
~ wdg=3 bus=trip_node_675_B_1.0.2 Kv=0.12 kva=1000.0 %r=0.006 Xhl=2.04  Xht=2.04  Xlt=1.36

New Transformer.xfmr_675_B_2 phases=1 windings=3
~ wdg=1 bus=xfmr_meter_675_B_2.2 Kv=2.4 kva=10000.0 %r=0.003
~ wdg=2 bus=trip_node_675_B_2.1.0 Kv=0.12 kva=1000.0 %r=0.006
~ wdg=3 bus=trip_node_675_B_2.0.2 Kv=0.12 kva=1000.0 %r=0.006 Xhl=2.04  Xht=2.04  Xlt=1.36

New Transformer.xfmr_675_B_3 phases=1 windings=3
~ wdg=1 bus=xfmr_meter_675_B_3.2 Kv=2.4 kva=10000.0 %r=0.003
~ wdg=2 bus=trip_node_675_B_3.1.0 Kv=0.12 kva=1000.0 %r=0.006
~ wdg=3 bus=trip_node_675_B_3.0.2 Kv=0.12 kva=1000.0 %r=0.006 Xhl=2.04  Xht=2.04  Xlt=1.36

New Transformer.xfmr_675_B_4 phases=1 windings=3
~ wdg=1 bus=xfmr_meter_675_B_4.2 Kv=2.4 kva=10000.0 %r=0.003
~ wdg=2 bus=trip_node_675_B_4.1.0 Kv=0.12 kva=1000.0 %r=0.006
~ wdg=3 bus=trip_node_675_B_4.0.2 Kv=0.12 kva=1000.0 %r=0.006 Xhl=2.04  Xht=2.04  Xlt=1.36

New Transformer.xfmr_675_B_5 phases=1 windings=3
~ wdg=1 bus=xfmr_meter_675_B_5.2 Kv=2.4 kva=10000.0 %r=0.003
~ wdg=2 bus=trip_node_675_B_5.1.0 Kv=0.12 kva=1000.0 %r=0.006
~ wdg=3 bus=trip_node_675_B_5.0.2 Kv=0.12 kva=1000.0 %r=0.006 Xhl=2.04  Xht=2.04  Xlt=1.36

New Transformer.xfmr_675_C_1 phases=1 windings=3
~ wdg=1 bus=xfmr_meter_675_C_1.3 Kv=2.4 kva=10000.0 %r=0.003
~ wdg=2 bus=trip_node_675_C_1.1.0 Kv=0.12 kva=1000.0 %r=0.006
~ wdg=3 bus=trip_node_675_C_1.0.2 Kv=0.12 kva=1000.0 %r=0.006 Xhl=2.04  Xht=2.04  Xlt=1.36

New Transformer.xfmr_675_C_2 phases=1 windings=3
~ wdg=1 bus=xfmr_meter_675_C_2.3 Kv=2.4 kva=10000.0 %r=0.003
~ wdg=2 bus=trip_node_675_C_2.1.0 Kv=0.12 kva=1000.0 %r=0.006
~ wdg=3 bus=trip_node_675_C_2.0.2 Kv=0.12 kva=1000.0 %r=0.006 Xhl=2.04  Xht=2.04  Xlt=1.36

New Transformer.xfmr_675_C_3 phases=1 windings=3
~ wdg=1 bus=xfmr_meter_675_C_3.3 Kv=2.4 kva=10000.0 %r=0.003
~ wdg=2 bus=trip_node_675_C_3.1.0 Kv=0.12 kva=1000.0 %r=0.006
~ wdg=3 bus=trip_node_675_C_3.0.2 Kv=0.12 kva=1000.0 %r=0.006 Xhl=2.04  Xht=2.04  Xlt=1.36

New Transformer.xfmr_675_C_4 phases=1 windings=3
~ wdg=1 bus=xfmr_meter_675_C_4.3 Kv=2.4 kva=10000.0 %r=0.003
~ wdg=2 bus=trip_node_675_C_4.1.0 Kv=0.12 kva=1000.0 %r=0.006
~ wdg=3 bus=trip_node_675_C_4.0.2 Kv=0.12 kva=1000.0 %r=0.006 Xhl=2.04  Xht=2.04  Xlt=1.36

New Transformer.xfmr_675_C_5 phases=1 windings=3
~ wdg=1 bus=xfmr_meter_675_C_5.3 Kv=2.4 kva=10000.0 %r=0.003
~ wdg=2 bus=trip_node_675_C_5.1.0 Kv=0.12 kva=1000.0 %r=0.006
~ wdg=3 bus=trip_node_675_C_5.0.2 Kv=0.12 kva=1000.0 %r=0.006 Xhl=2.04  Xht=2.04  Xlt=1.36

New Transformer.xfmr_671_A_1 phases=1 windings=3
~ wdg=1 bus=xfmr_meter_671_A_1.1 Kv=2.4 kva=10000.0 %r=0.003
~ wdg=2 bus=trip_node_671_A_1.1.0 Kv=0.12 kva=1000.0 %r=0.006
~ wdg=3 bus=trip_node_671_A_1.0.2 Kv=0.12 kva=1000.0 %r=0.006 Xhl=2.04  Xht=2.04  Xlt=1.36

New Transformer.xfmr_671_A_2 phases=1 windings=3
~ wdg=1 bus=xfmr_meter_671_A_2.1 Kv=2.4 kva=10000.0 %r=0.003
~ wdg=2 bus=trip_node_671_A_2.1.0 Kv=0.12 kva=1000.0 %r=0.006
~ wdg=3 bus=trip_node_671_A_2.0.2 Kv=0.12 kva=1000.0 %r=0.006 Xhl=2.04  Xht=2.04  Xlt=1.36

New Transformer.xfmr_671_A_3 phases=1 windings=3
~ wdg=1 bus=xfmr_meter_671_A_3.1 Kv=2.4 kva=10000.0 %r=0.003
~ wdg=2 bus=trip_node_671_A_3.1.0 Kv=0.12 kva=1000.0 %r=0.006
~ wdg=3 bus=trip_node_671_A_3.0.2 Kv=0.12 kva=1000.0 %r=0.006 Xhl=2.04  Xht=2.04  Xlt=1.36

New Transformer.xfmr_671_A_4 phases=1 windings=3
~ wdg=1 bus=xfmr_meter_671_A_4.1 Kv=2.4 kva=10000.0 %r=0.003
~ wdg=2 bus=trip_node_671_A_4.1.0 Kv=0.12 kva=1000.0 %r=0.006
~ wdg=3 bus=trip_node_671_A_4.0.2 Kv=0.12 kva=1000.0 %r=0.006 Xhl=2.04  Xht=2.04  Xlt=1.36

New Transformer.xfmr_671_A_5 phases=1 windings=3
~ wdg=1 bus=xfmr_meter_671_A_5.1 Kv=2.4 kva=10000.0 %r=0.003
~ wdg=2 bus=trip_node_671_A_5.1.0 Kv=0.12 kva=1000.0 %r=0.006
~ wdg=3 bus=trip_node_671_A_5.0.2 Kv=0.12 kva=1000.0 %r=0.006 Xhl=2.04  Xht=2.04  Xlt=1.36

New Transformer.xfmr_671_B_1 phases=1 windings=3
~ wdg=1 bus=xfmr_meter_671_B_1.2 Kv=2.4 kva=10000.0 %r=0.003
~ wdg=2 bus=trip_node_671_B_1.1.0 Kv=0.12 kva=1000.0 %r=0.006
~ wdg=3 bus=trip_node_671_B_1.0.2 Kv=0.12 kva=1000.0 %r=0.006 Xhl=2.04  Xht=2.04  Xlt=1.36

New Transformer.xfmr_671_B_2 phases=1 windings=3
~ wdg=1 bus=xfmr_meter_671_B_2.2 Kv=2.4 kva=10000.0 %r=0.003
~ wdg=2 bus=trip_node_671_B_2.1.0 Kv=0.12 kva=1000.0 %r=0.006
~ wdg=3 bus=trip_node_671_B_2.0.2 Kv=0.12 kva=1000.0 %r=0.006 Xhl=2.04  Xht=2.04  Xlt=1.36

New Transformer.xfmr_671_B_3 phases=1 windings=3
~ wdg=1 bus=xfmr_meter_671_B_3.2 Kv=2.4 kva=10000.0 %r=0.003
~ wdg=2 bus=trip_node_671_B_3.1.0 Kv=0.12 kva=1000.0 %r=0.006
~ wdg=3 bus=trip_node_671_B_3.0.2 Kv=0.12 kva=1000.0 %r=0.006 Xhl=2.04  Xht=2.04  Xlt=1.36

New Transformer.xfmr_671_B_4 phases=1 windings=3
~ wdg=1 bus=xfmr_meter_671_B_4.2 Kv=2.4 kva=10000.0 %r=0.003
~ wdg=2 bus=trip_node_671_B_4.1.0 Kv=0.12 kva=1000.0 %r=0.006
~ wdg=3 bus=trip_node_671_B_4.0.2 Kv=0.12 kva=1000.0 %r=0.006 Xhl=2.04  Xht=2.04  Xlt=1.36

New Transformer.xfmr_671_B_5 phases=1 windings=3
~ wdg=1 bus=xfmr_meter_671_B_5.2 Kv=2.4 kva=10000.0 %r=0.003
~ wdg=2 bus=trip_node_671_B_5.1.0 Kv=0.12 kva=1000.0 %r=0.006
~ wdg=3 bus=trip_node_671_B_5.0.2 Kv=0.12 kva=1000.0 %r=0.006 Xhl=2.04  Xht=2.04  Xlt=1.36

New Transformer.xfmr_671_C_1 phases=1 windings=3
~ wdg=1 bus=xfmr_meter_671_C_1.3 Kv=2.4 kva=10000.0 %r=0.003
~ wdg=2 bus=trip_node_671_C_1.1.0 Kv=0.12 kva=1000.0 %r=0.006
~ wdg=3 bus=trip_node_671_C_1.0.2 Kv=0.12 kva=1000.0 %r=0.006 Xhl=2.04  Xht=2.04  Xlt=1.36

New Transformer.xfmr_671_C_2 phases=1 windings=3
~ wdg=1 bus=xfmr_meter_671_C_2.3 Kv=2.4 kva=10000.0 %r=0.003
~ wdg=2 bus=trip_node_671_C_2.1.0 Kv=0.12 kva=1000.0 %r=0.006
~ wdg=3 bus=trip_node_671_C_2.0.2 Kv=0.12 kva=1000.0 %r=0.006 Xhl=2.04  Xht=2.04  Xlt=1.36

New Transformer.xfmr_671_C_3 phases=1 windings=3
~ wdg=1 bus=xfmr_meter_671_C_3.3 Kv=2.4 kva=10000.0 %r=0.003
~ wdg=2 bus=trip_node_671_C_3.1.0 Kv=0.12 kva=1000.0 %r=0.006
~ wdg=3 bus=trip_node_671_C_3.0.2 Kv=0.12 kva=1000.0 %r=0.006 Xhl=2.04  Xht=2.04  Xlt=1.36

New Transformer.xfmr_671_C_4 phases=1 windings=3
~ wdg=1 bus=xfmr_meter_671_C_4.3 Kv=2.4 kva=10000.0 %r=0.003
~ wdg=2 bus=trip_node_671_C_4.1.0 Kv=0.12 kva=1000.0 %r=0.006
~ wdg=3 bus=trip_node_671_C_4.0.2 Kv=0.12 kva=1000.0 %r=0.006 Xhl=2.04  Xht=2.04  Xlt=1.36

New Transformer.xfmr_671_C_5 phases=1 windings=3
~ wdg=1 bus=xfmr_meter_671_C_5.3 Kv=2.4 kva=10000.0 %r=0.003
~ wdg=2 bus=trip_node_671_C_5.1.0 Kv=0.12 kva=1000.0 %r=0.006
~ wdg=3 bus=trip_node_671_C_5.0.2 Kv=0.12 kva=1000.0 %r=0.006 Xhl=2.04  Xht=2.04  Xlt=1.36

New Transformer.xfmr_680_A_1 phases=1 windings=3
~ wdg=1 bus=xfmr_meter_680_A_1.1 Kv=2.4 kva=10000.0 %r=0.003
~ wdg=2 bus=trip_node_680_A_1.1.0 Kv=0.12 kva=1000.0 %r=0.006
~ wdg=3 bus=trip_node_680_A_1.0.2 Kv=0.12 kva=1000.0 %r=0.006 Xhl=2.04  Xht=2.04  Xlt=1.36

New Transformer.xfmr_680_A_2 phases=1 windings=3
~ wdg=1 bus=xfmr_meter_680_A_2.1 Kv=2.4 kva=10000.0 %r=0.003
~ wdg=2 bus=trip_node_680_A_2.1.0 Kv=0.12 kva=1000.0 %r=0.006
~ wdg=3 bus=trip_node_680_A_2.0.2 Kv=0.12 kva=1000.0 %r=0.006 Xhl=2.04  Xht=2.04  Xlt=1.36

New Transformer.xfmr_680_A_3 phases=1 windings=3
~ wdg=1 bus=xfmr_meter_680_A_3.1 Kv=2.4 kva=10000.0 %r=0.003
~ wdg=2 bus=trip_node_680_A_3.1.0 Kv=0.12 kva=1000.0 %r=0.006
~ wdg=3 bus=trip_node_680_A_3.0.2 Kv=0.12 kva=1000.0 %r=0.006 Xhl=2.04  Xht=2.04  Xlt=1.36

New Transformer.xfmr_680_A_4 phases=1 windings=3
~ wdg=1 bus=xfmr_meter_680_A_4.1 Kv=2.4 kva=10000.0 %r=0.003
~ wdg=2 bus=trip_node_680_A_4.1.0 Kv=0.12 kva=1000.0 %r=0.006
~ wdg=3 bus=trip_node_680_A_4.0.2 Kv=0.12 kva=1000.0 %r=0.006 Xhl=2.04  Xht=2.04  Xlt=1.36

New Transformer.xfmr_680_A_5 phases=1 windings=3
~ wdg=1 bus=xfmr_meter_680_A_5.1 Kv=2.4 kva=10000.0 %r=0.003
~ wdg=2 bus=trip_node_680_A_5.1.0 Kv=0.12 kva=1000.0 %r=0.006
~ wdg=3 bus=trip_node_680_A_5.0.2 Kv=0.12 kva=1000.0 %r=0.006 Xhl=2.04  Xht=2.04  Xlt=1.36

New Transformer.xfmr_680_B_1 phases=1 windings=3
~ wdg=1 bus=xfmr_meter_680_B_1.2 Kv=2.4 kva=10000.0 %r=0.003
~ wdg=2 bus=trip_node_680_B_1.1.0 Kv=0.12 kva=1000.0 %r=0.006
~ wdg=3 bus=trip_node_680_B_1.0.2 Kv=0.12 kva=1000.0 %r=0.006 Xhl=2.04  Xht=2.04  Xlt=1.36

New Transformer.xfmr_680_B_2 phases=1 windings=3
~ wdg=1 bus=xfmr_meter_680_B_2.2 Kv=2.4 kva=10000.0 %r=0.003
~ wdg=2 bus=trip_node_680_B_2.1.0 Kv=0.12 kva=1000.0 %r=0.006
~ wdg=3 bus=trip_node_680_B_2.0.2 Kv=0.12 kva=1000.0 %r=0.006 Xhl=2.04  Xht=2.04  Xlt=1.36

New Transformer.xfmr_680_B_3 phases=1 windings=3
~ wdg=1 bus=xfmr_meter_680_B_3.2 Kv=2.4 kva=10000.0 %r=0.003
~ wdg=2 bus=trip_node_680_B_3.1.0 Kv=0.12 kva=1000.0 %r=0.006
~ wdg=3 bus=trip_node_680_B_3.0.2 Kv=0.12 kva=1000.0 %r=0.006 Xhl=2.04  Xht=2.04  Xlt=1.36

New Transformer.xfmr_680_B_4 phases=1 windings=3
~ wdg=1 bus=xfmr_meter_680_B_4.2 Kv=2.4 kva=10000.0 %r=0.003
~ wdg=2 bus=trip_node_680_B_4.1.0 Kv=0.12 kva=1000.0 %r=0.006
~ wdg=3 bus=trip_node_680_B_4.0.2 Kv=0.12 kva=1000.0 %r=0.006 Xhl=2.04  Xht=2.04  Xlt=1.36

New Transformer.xfmr_680_B_5 phases=1 windings=3
~ wdg=1 bus=xfmr_meter_680_B_5.2 Kv=2.4 kva=10000.0 %r=0.003
~ wdg=2 bus=trip_node_680_B_5.1.0 Kv=0.12 kva=1000.0 %r=0.006
~ wdg=3 bus=trip_node_680_B_5.0.2 Kv=0.12 kva=1000.0 %r=0.006 Xhl=2.04  Xht=2.04  Xlt=1.36

New Transformer.xfmr_680_C_1 phases=1 windings=3
~ wdg=1 bus=xfmr_meter_680_C_1.3 Kv=2.4 kva=10000.0 %r=0.003
~ wdg=2 bus=trip_node_680_C_1.1.0 Kv=0.12 kva=1000.0 %r=0.006
~ wdg=3 bus=trip_node_680_C_1.0.2 Kv=0.12 kva=1000.0 %r=0.006 Xhl=2.04  Xht=2.04  Xlt=1.36

New Transformer.xfmr_680_C_2 phases=1 windings=3
~ wdg=1 bus=xfmr_meter_680_C_2.3 Kv=2.4 kva=10000.0 %r=0.003
~ wdg=2 bus=trip_node_680_C_2.1.0 Kv=0.12 kva=1000.0 %r=0.006
~ wdg=3 bus=trip_node_680_C_2.0.2 Kv=0.12 kva=1000.0 %r=0.006 Xhl=2.04  Xht=2.04  Xlt=1.36

New Transformer.xfmr_680_C_3 phases=1 windings=3
~ wdg=1 bus=xfmr_meter_680_C_3.3 Kv=2.4 kva=10000.0 %r=0.003
~ wdg=2 bus=trip_node_680_C_3.1.0 Kv=0.12 kva=1000.0 %r=0.006
~ wdg=3 bus=trip_node_680_C_3.0.2 Kv=0.12 kva=1000.0 %r=0.006 Xhl=2.04  Xht=2.04  Xlt=1.36

New Transformer.xfmr_680_C_4 phases=1 windings=3
~ wdg=1 bus=xfmr_meter_680_C_4.3 Kv=2.4 kva=10000.0 %r=0.003
~ wdg=2 bus=trip_node_680_C_4.1.0 Kv=0.12 kva=1000.0 %r=0.006
~ wdg=3 bus=trip_node_680_C_4.0.2 Kv=0.12 kva=1000.0 %r=0.006 Xhl=2.04  Xht=2.04  Xlt=1.36

New Transformer.xfmr_680_C_5 phases=1 windings=3
~ wdg=1 bus=xfmr_meter_680_C_5.3 Kv=2.4 kva=10000.0 %r=0.003
~ wdg=2 bus=trip_node_680_C_5.1.0 Kv=0.12 kva=1000.0 %r=0.006
~ wdg=3 bus=trip_node_680_C_5.0.2 Kv=0.12 kva=1000.0 %r=0.006 Xhl=2.04  Xht=2.04  Xlt=1.36


New Linecode.2P_OH_Code0 units=km nphases=2
~ rmatrix = [0.086666667 | 0.02907197  0.087405303]
~ xmatrix = [0.204166667 | 0.072897727  0.201723485]
~ cmatrix = [2.569829596 | -0.52995137  2.597460011]

New Linecode.3P_OH_Code1 units=km nphases=3
~ rmatrix = [0.086666667 | 0.029545455 0.088371212 | 0.02907197 0.029924242 0.087405303]
~ xmatrix = [0.204166667 | 0.095018939 0.198522727 | 0.072897727 0.080227273 0.201723485]
~ cmatrix = [2.851710072 | -0.920293787  3.004631862 | -0.350755566  -0.585011253 2.71134756]


New Linecode.2P_OH_Code2 units=km nphases=2
~ rmatrix = [0.086666667 | 0.02907197  0.087405303]
~ xmatrix = [0.204166667 | 0.072897727  0.201723485]
~ cmatrix = [2.569829596 | -0.52995137  2.597460011]

New Linecode.1P_OH_Code3 units=km nphases=1
~ rmatrix = [0.251742424]
~ xmatrix = [0.255208333]
~ cmatrix = [2.270366128]


New Linecode.1P_UG_Code4 units=km nphases=1
~ rmatrix = [0.251742424]
~ xmatrix = [0.255208333]
~ cmatrix = [2.270366128]

New Linecode.3P_UG_Code5 units=km nphases=3
~ rmatrix = [0.086666667 | 0.029545455 0.088371212 | 0.02907197 0.029924242 0.087405303]
~ xmatrix = [0.204166667 | 0.095018939 0.198522727 | 0.072897727 0.080227273 0.201723485]
~ cmatrix = [2.851710072 | -0.920293787  3.004631862 | -0.350755566  -0.585011253 2.71134756]

New Linecode.3P_OH_Code6 units=km nphases=3
~ rmatrix = [0.086666667 | 0.029545455 0.088371212 | 0.02907197 0.029924242 0.087405303]
~ xmatrix = [0.204166667 | 0.095018939 0.198522727 | 0.072897727 0.080227273 0.201723485]
~ cmatrix = [2.851710072 | -0.920293787  3.004631862 | -0.350755566  -0.585011253 2.71134756]

New Linecode.3P_Code7 units=km nphases=3
~ rmatrix = [0.086666667 | 0.029545455 0.088371212 | 0.02907197 0.029924242 0.087405303]
~ xmatrix = [0.204166667 | 0.095018939 0.198522727 | 0.072897727 0.080227273 0.201723485]
~ cmatrix = [2.851710072 | -0.920293787  3.004631862 | -0.350755566  -0.585011253 2.71134756]

New Linecode.1P_OH_Code8 units=km nphases=1
~ rmatrix = [0.251742424]
~ xmatrix = [0.255208333]
~ cmatrix = [2.270366128]

New Linecode.1P_OH_Code9 units=km nphases=1
~ rmatrix = [0.251742424]
~ xmatrix = [0.255208333]
~ cmatrix = [2.270366128]

New Linecode.2P_Code10 units=km nphases=2
~ rmatrix = [0.086666667 | 0.02907197  0.087405303]
~ xmatrix = [0.204166667 | 0.072897727  0.201723485]
~ cmatrix = [2.569829596 | -0.52995137  2.597460011]


New Line.OL632-645 Units=km Length=0.1524
~ bus1=N632.2.3
~ bus2=N645.2.3 switch=n  phases=2 Linecode=2P_OH_Code0

New Line.OL645-646 Units=km Length=0.09144
~ bus1=N645.2.3
~ bus2=N646.2.3 switch=n  phases=2 Linecode=2P_OH_Code0

New Line.OL630-632 Units=km Length=0.6096
~ bus1=N630.1.2.3
~ bus2=N632.1.2.3 switch=n  phases=3 Linecode=3P_OH_Code1

New Line.OL632-6321 Units=km Length=0.1524
~ bus1=N632.1.2.3
~ bus2=N6321.1.2.3 switch=n  phases=3 Linecode=3P_OH_Code1

New Line.OL6321-671 Units=km Length=0.457
~ bus1=N6321.1.2.3
~ bus2=N671.1.2.3 switch=n  phases=3 Linecode=3P_OH_Code1

New Line.OL671-680 Units=km Length=0.3048
~ bus1=N671.1.2.3
~ bus2=N680.1.2.3 switch=n  phases=3 Linecode=3P_OH_Code1

New Line.OL671-684 Units=km Length=0.09144
~ bus1=N671.1.3
~ bus2=N684.1.3 switch=n  phases=2 Linecode=2P_OH_Code2

New Line.OL684-611 Units=km Length=0.09144
~ bus1=N684.3
~ bus2=N611.3 switch=n  phases=1 Linecode=1P_OH_Code3

New Line.UL684-652 Units=km Length=0.24384
~ bus1=N684.1
~ bus2=N652.1 switch=n  phases=1 Linecode=1P_UG_Code4

New Line.UL692-675 Units=km Length=0.1524
~ bus1=N692.1.2.3
~ bus2=N675.1.2.3 switch=n  phases=3 Linecode=3P_UG_Code5

New Line.UL632-633 Units=km Length=0.1524
~ bus1=N632.1.2.3
~ bus2=N633.1.2.3 switch=n  phases=3 Linecode=3P_OH_Code6

New Line.S671-692 Units=km Length=0.001
~ bus1=N671.1.2.3
~ bus2=N692.1.2.3 switch=y phases=3 Linecode=3P_Code7

New Line.OL_652_A Units=km Length=0.03048
~ bus1=N652.1
~ bus2=meter_652_A.1 switch=n  phases=1 Linecode=1P_OH_Code8

New Line.OL_611_C Units=km Length=0.03048
~ bus1=N611.3
~ bus2=meter_611_C.3 switch=n  phases=1 Linecode=1P_OH_Code3

New Line.OL_684_A Units=km Length=0.03048
~ bus1=N684.1
~ bus2=meter_684_A.1 switch=n  phases=1 Linecode=1P_OH_Code8

New Line.OL_684_C Units=km Length=0.03048
~ bus1=N684.3
~ bus2=meter_684_C.3 switch=n  phases=1 Linecode=1P_OH_Code3

New Line.OL_645_B Units=km Length=0.03048
~ bus1=N645.2
~ bus2=meter_645_B.2 switch=n  phases=1 Linecode=1P_OH_Code9

New Line.OL_645_C Units=km Length=0.03048
~ bus1=N645.3
~ bus2=meter_645_C.3 switch=n  phases=1 Linecode=1P_OH_Code3

New Line.OL_633_A Units=km Length=0.03048
~ bus1=N633.1
~ bus2=meter_633_A.1 switch=n  phases=1 Linecode=1P_OH_Code8

New Line.OL_633_B Units=km Length=0.03048
~ bus1=N633.2
~ bus2=meter_633_B.2 switch=n  phases=1 Linecode=1P_OH_Code9

New Line.OL_633_C Units=km Length=0.03048
~ bus1=N633.3
~ bus2=meter_633_C.3 switch=n  phases=1 Linecode=1P_OH_Code3

New Line.OL_632_A Units=km Length=0.03048
~ bus1=N632.1
~ bus2=meter_632_A.1 switch=n  phases=1 Linecode=1P_OH_Code8

New Line.OL_632_B Units=km Length=0.03048
~ bus1=N632.2
~ bus2=meter_632_B.2 switch=n  phases=1 Linecode=1P_OH_Code9

New Line.OL_632_C Units=km Length=0.03048
~ bus1=N632.3
~ bus2=meter_632_C.3 switch=n  phases=1 Linecode=1P_OH_Code3

New Line.OL_692_A Units=km Length=0.03048
~ bus1=N692.1
~ bus2=meter_692_A.1 switch=n  phases=1 Linecode=1P_OH_Code8

New Line.OL_692_B Units=km Length=0.03048
~ bus1=N692.2
~ bus2=meter_692_B.2 switch=n  phases=1 Linecode=1P_OH_Code9

New Line.OL_692_C Units=km Length=0.03048
~ bus1=N692.3
~ bus2=meter_692_C.3 switch=n  phases=1 Linecode=1P_OH_Code3

New Line.OL_675_A Units=km Length=0.03048
~ bus1=N675.1
~ bus2=meter_675_A.1 switch=n  phases=1 Linecode=1P_OH_Code8

New Line.OL_675_B Units=km Length=0.03048
~ bus1=N675.2
~ bus2=meter_675_B.2 switch=n  phases=1 Linecode=1P_OH_Code9

New Line.OL_675_C Units=km Length=0.03048
~ bus1=N675.3
~ bus2=meter_675_C.3 switch=n  phases=1 Linecode=1P_OH_Code3

New Line.OL_671_A Units=km Length=0.03048
~ bus1=N671.1
~ bus2=meter_671_A.1 switch=n  phases=1 Linecode=1P_OH_Code8

New Line.OL_671_B Units=km Length=0.03048
~ bus1=N671.2
~ bus2=meter_671_B.2 switch=n  phases=1 Linecode=1P_OH_Code9

New Line.OL_671_C Units=km Length=0.03048
~ bus1=N671.3
~ bus2=meter_671_C.3 switch=n  phases=1 Linecode=1P_OH_Code3

New Line.OL_680_A Units=km Length=0.03048
~ bus1=N680.1
~ bus2=meter_680_A.1 switch=n  phases=1 Linecode=1P_OH_Code8

New Line.OL_680_B Units=km Length=0.03048
~ bus1=N680.2
~ bus2=meter_680_B.2 switch=n  phases=1 Linecode=1P_OH_Code9

New Line.OL_680_C Units=km Length=0.03048
~ bus1=N680.3
~ bus2=meter_680_C.3 switch=n  phases=1 Linecode=1P_OH_Code3

New Line.OL_652_A_xfmr_652_A_1 Units=km Length=0.03048
~ bus1=meter_652_A.1
~ bus2=xfmr_meter_652_A_1.1 switch=n  phases=1 Linecode=1P_OH_Code8

New Line.trip_line_652_A_h_1 Units=km Length=0.03048
~ bus1=trip_node_652_A_1.1.2
~ bus2=trip_load_652_A_h_1.1.2 switch=n  phases=2 Linecode=2P_Code10

New Line.trip_line_652_A_h_2 Units=km Length=0.03048
~ bus1=trip_node_652_A_1.1.2
~ bus2=trip_load_652_A_h_2.1.2 switch=n  phases=2 Linecode=2P_Code10

New Line.trip_line_652_A_h_3 Units=km Length=0.03048
~ bus1=trip_node_652_A_1.1.2
~ bus2=trip_load_652_A_h_3.1.2 switch=n  phases=2 Linecode=2P_Code10

New Line.trip_line_652_A_h_4 Units=km Length=0.03048
~ bus1=trip_node_652_A_1.1.2
~ bus2=trip_load_652_A_h_4.1.2 switch=n  phases=2 Linecode=2P_Code10

New Line.trip_line_652_A_h_5 Units=km Length=0.03048
~ bus1=trip_node_652_A_1.1.2
~ bus2=trip_load_652_A_h_5.1.2 switch=n  phases=2 Linecode=2P_Code10

New Line.trip_line_652_A_h_6 Units=km Length=0.03048
~ bus1=trip_node_652_A_1.1.2
~ bus2=trip_load_652_A_h_6.1.2 switch=n  phases=2 Linecode=2P_Code10

New Line.trip_line_652_A_h_7 Units=km Length=0.03048
~ bus1=trip_node_652_A_1.1.2
~ bus2=trip_load_652_A_h_7.1.2 switch=n  phases=2 Linecode=2P_Code10

New Line.trip_line_652_A_h_8 Units=km Length=0.03048
~ bus1=trip_node_652_A_1.1.2
~ bus2=trip_load_652_A_h_8.1.2 switch=n  phases=2 Linecode=2P_Code10

New Line.OL_652_A_xfmr_652_A_2 Units=km Length=0.03048
~ bus1=meter_652_A.1
~ bus2=xfmr_meter_652_A_2.1 switch=n  phases=1 Linecode=1P_OH_Code8

New Line.trip_line_652_A_h_9 Units=km Length=0.03048
~ bus1=trip_node_652_A_2.1.2
~ bus2=trip_load_652_A_h_9.1.2 switch=n  phases=2 Linecode=2P_Code10

New Line.trip_line_652_A_h_10 Units=km Length=0.03048
~ bus1=trip_node_652_A_2.1.2
~ bus2=trip_load_652_A_h_10.1.2 switch=n  phases=2 Linecode=2P_Code10

New Line.trip_line_652_A_h_11 Units=km Length=0.03048
~ bus1=trip_node_652_A_2.1.2
~ bus2=trip_load_652_A_h_11.1.2 switch=n  phases=2 Linecode=2P_Code10

New Line.trip_line_652_A_h_12 Units=km Length=0.03048
~ bus1=trip_node_652_A_2.1.2
~ bus2=trip_load_652_A_h_12.1.2 switch=n  phases=2 Linecode=2P_Code10

New Line.trip_line_652_A_h_13 Units=km Length=0.03048
~ bus1=trip_node_652_A_2.1.2
~ bus2=trip_load_652_A_h_13.1.2 switch=n  phases=2 Linecode=2P_Code10

New Line.trip_line_652_A_h_14 Units=km Length=0.03048
~ bus1=trip_node_652_A_2.1.2
~ bus2=trip_load_652_A_h_14.1.2 switch=n  phases=2 Linecode=2P_Code10

New Line.trip_line_652_A_h_15 Units=km Length=0.03048
~ bus1=trip_node_652_A_2.1.2
~ bus2=trip_load_652_A_h_15.1.2 switch=n  phases=2 Linecode=2P_Code10

New Line.trip_line_652_A_h_16 Units=km Length=0.03048
~ bus1=trip_node_652_A_2.1.2
~ bus2=trip_load_652_A_h_16.1.2 switch=n  phases=2 Linecode=2P_Code10

New Line.OL_652_A_xfmr_652_A_3 Units=km Length=0.03048
~ bus1=meter_652_A.1
~ bus2=xfmr_meter_652_A_3.1 switch=n  phases=1 Linecode=1P_OH_Code8

New Line.trip_line_652_A_h_17 Units=km Length=0.03048
~ bus1=trip_node_652_A_3.1.2
~ bus2=trip_load_652_A_h_17.1.2 switch=n  phases=2 Linecode=2P_Code10

New Line.trip_line_652_A_h_18 Units=km Length=0.03048
~ bus1=trip_node_652_A_3.1.2
~ bus2=trip_load_652_A_h_18.1.2 switch=n  phases=2 Linecode=2P_Code10

New Line.trip_line_652_A_h_19 Units=km Length=0.03048
~ bus1=trip_node_652_A_3.1.2
~ bus2=trip_load_652_A_h_19.1.2 switch=n  phases=2 Linecode=2P_Code10

New Line.trip_line_652_A_h_20 Units=km Length=0.03048
~ bus1=trip_node_652_A_3.1.2
~ bus2=trip_load_652_A_h_20.1.2 switch=n  phases=2 Linecode=2P_Code10

New Line.trip_line_652_A_h_21 Units=km Length=0.03048
~ bus1=trip_node_652_A_3.1.2
~ bus2=trip_load_652_A_h_21.1.2 switch=n  phases=2 Linecode=2P_Code10

New Line.trip_line_652_A_h_22 Units=km Length=0.03048
~ bus1=trip_node_652_A_3.1.2
~ bus2=trip_load_652_A_h_22.1.2 switch=n  phases=2 Linecode=2P_Code10

New Line.trip_line_652_A_h_23 Units=km Length=0.03048
~ bus1=trip_node_652_A_3.1.2
~ bus2=trip_load_652_A_h_23.1.2 switch=n  phases=2 Linecode=2P_Code10

New Line.trip_line_652_A_h_24 Units=km Length=0.03048
~ bus1=trip_node_652_A_3.1.2
~ bus2=trip_load_652_A_h_24.1.2 switch=n  phases=2 Linecode=2P_Code10

New Line.OL_652_A_xfmr_652_A_4 Units=km Length=0.03048
~ bus1=meter_652_A.1
~ bus2=xfmr_meter_652_A_4.1 switch=n  phases=1 Linecode=1P_OH_Code8

New Line.trip_line_652_A_h_25 Units=km Length=0.03048
~ bus1=trip_node_652_A_4.1.2
~ bus2=trip_load_652_A_h_25.1.2 switch=n  phases=2 Linecode=2P_Code10

New Line.trip_line_652_A_h_26 Units=km Length=0.03048
~ bus1=trip_node_652_A_4.1.2
~ bus2=trip_load_652_A_h_26.1.2 switch=n  phases=2 Linecode=2P_Code10

New Line.trip_line_652_A_h_27 Units=km Length=0.03048
~ bus1=trip_node_652_A_4.1.2
~ bus2=trip_load_652_A_h_27.1.2 switch=n  phases=2 Linecode=2P_Code10

New Line.trip_line_652_A_h_28 Units=km Length=0.03048
~ bus1=trip_node_652_A_4.1.2
~ bus2=trip_load_652_A_h_28.1.2 switch=n  phases=2 Linecode=2P_Code10

New Line.trip_line_652_A_h_29 Units=km Length=0.03048
~ bus1=trip_node_652_A_4.1.2
~ bus2=trip_load_652_A_h_29.1.2 switch=n  phases=2 Linecode=2P_Code10

New Line.trip_line_652_A_h_30 Units=km Length=0.03048
~ bus1=trip_node_652_A_4.1.2
~ bus2=trip_load_652_A_h_30.1.2 switch=n  phases=2 Linecode=2P_Code10

New Line.trip_line_652_A_h_31 Units=km Length=0.03048
~ bus1=trip_node_652_A_4.1.2
~ bus2=trip_load_652_A_h_31.1.2 switch=n  phases=2 Linecode=2P_Code10

New Line.trip_line_652_A_h_32 Units=km Length=0.03048
~ bus1=trip_node_652_A_4.1.2
~ bus2=trip_load_652_A_h_32.1.2 switch=n  phases=2 Linecode=2P_Code10

New Line.OL_652_A_xfmr_652_A_5 Units=km Length=0.03048
~ bus1=meter_652_A.1
~ bus2=xfmr_meter_652_A_5.1 switch=n  phases=1 Linecode=1P_OH_Code8

New Line.trip_line_652_A_h_33 Units=km Length=0.03048
~ bus1=trip_node_652_A_5.1.2
~ bus2=trip_load_652_A_h_33.1.2 switch=n  phases=2 Linecode=2P_Code10

New Line.trip_line_652_A_h_34 Units=km Length=0.03048
~ bus1=trip_node_652_A_5.1.2
~ bus2=trip_load_652_A_h_34.1.2 switch=n  phases=2 Linecode=2P_Code10

New Line.trip_line_652_A_h_35 Units=km Length=0.03048
~ bus1=trip_node_652_A_5.1.2
~ bus2=trip_load_652_A_h_35.1.2 switch=n  phases=2 Linecode=2P_Code10

New Line.trip_line_652_A_h_36 Units=km Length=0.03048
~ bus1=trip_node_652_A_5.1.2
~ bus2=trip_load_652_A_h_36.1.2 switch=n  phases=2 Linecode=2P_Code10

New Line.trip_line_652_A_h_37 Units=km Length=0.03048
~ bus1=trip_node_652_A_5.1.2
~ bus2=trip_load_652_A_h_37.1.2 switch=n  phases=2 Linecode=2P_Code10

New Line.trip_line_652_A_h_38 Units=km Length=0.03048
~ bus1=trip_node_652_A_5.1.2
~ bus2=trip_load_652_A_h_38.1.2 switch=n  phases=2 Linecode=2P_Code10

New Line.trip_line_652_A_h_39 Units=km Length=0.03048
~ bus1=trip_node_652_A_5.1.2
~ bus2=trip_load_652_A_h_39.1.2 switch=n  phases=2 Linecode=2P_Code10

New Line.trip_line_652_A_h_40 Units=km Length=0.03048
~ bus1=trip_node_652_A_5.1.2
~ bus2=trip_load_652_A_h_40.1.2 switch=n  phases=2 Linecode=2P_Code10

New Line.OL_611_C_xfmr_611_C_1 Units=km Length=0.03048
~ bus1=meter_611_C.3
~ bus2=xfmr_meter_611_C_1.3 switch=n  phases=1 Linecode=1P_OH_Code3

New Line.trip_line_611_C_h_1 Units=km Length=0.03048
~ bus1=trip_node_611_C_1.1.2
~ bus2=trip_load_611_C_h_1.1.2 switch=n  phases=2 Linecode=2P_Code10

New Line.trip_line_611_C_h_2 Units=km Length=0.03048
~ bus1=trip_node_611_C_1.1.2
~ bus2=trip_load_611_C_h_2.1.2 switch=n  phases=2 Linecode=2P_Code10

New Line.trip_line_611_C_h_3 Units=km Length=0.03048
~ bus1=trip_node_611_C_1.1.2
~ bus2=trip_load_611_C_h_3.1.2 switch=n  phases=2 Linecode=2P_Code10

New Line.trip_line_611_C_h_4 Units=km Length=0.03048
~ bus1=trip_node_611_C_1.1.2
~ bus2=trip_load_611_C_h_4.1.2 switch=n  phases=2 Linecode=2P_Code10

New Line.trip_line_611_C_h_5 Units=km Length=0.03048
~ bus1=trip_node_611_C_1.1.2
~ bus2=trip_load_611_C_h_5.1.2 switch=n  phases=2 Linecode=2P_Code10

New Line.trip_line_611_C_h_6 Units=km Length=0.03048
~ bus1=trip_node_611_C_1.1.2
~ bus2=trip_load_611_C_h_6.1.2 switch=n  phases=2 Linecode=2P_Code10

New Line.trip_line_611_C_h_7 Units=km Length=0.03048
~ bus1=trip_node_611_C_1.1.2
~ bus2=trip_load_611_C_h_7.1.2 switch=n  phases=2 Linecode=2P_Code10

New Line.trip_line_611_C_h_8 Units=km Length=0.03048
~ bus1=trip_node_611_C_1.1.2
~ bus2=trip_load_611_C_h_8.1.2 switch=n  phases=2 Linecode=2P_Code10

New Line.OL_611_C_xfmr_611_C_2 Units=km Length=0.03048
~ bus1=meter_611_C.3
~ bus2=xfmr_meter_611_C_2.3 switch=n  phases=1 Linecode=1P_OH_Code3

New Line.trip_line_611_C_h_9 Units=km Length=0.03048
~ bus1=trip_node_611_C_2.1.2
~ bus2=trip_load_611_C_h_9.1.2 switch=n  phases=2 Linecode=2P_Code10

New Line.trip_line_611_C_h_10 Units=km Length=0.03048
~ bus1=trip_node_611_C_2.1.2
~ bus2=trip_load_611_C_h_10.1.2 switch=n  phases=2 Linecode=2P_Code10

New Line.trip_line_611_C_h_11 Units=km Length=0.03048
~ bus1=trip_node_611_C_2.1.2
~ bus2=trip_load_611_C_h_11.1.2 switch=n  phases=2 Linecode=2P_Code10

New Line.trip_line_611_C_h_12 Units=km Length=0.03048
~ bus1=trip_node_611_C_2.1.2
~ bus2=trip_load_611_C_h_12.1.2 switch=n  phases=2 Linecode=2P_Code10

New Line.trip_line_611_C_h_13 Units=km Length=0.03048
~ bus1=trip_node_611_C_2.1.2
~ bus2=trip_load_611_C_h_13.1.2 switch=n  phases=2 Linecode=2P_Code10

New Line.trip_line_611_C_h_14 Units=km Length=0.03048
~ bus1=trip_node_611_C_2.1.2
~ bus2=trip_load_611_C_h_14.1.2 switch=n  phases=2 Linecode=2P_Code10

New Line.trip_line_611_C_h_15 Units=km Length=0.03048
~ bus1=trip_node_611_C_2.1.2
~ bus2=trip_load_611_C_h_15.1.2 switch=n  phases=2 Linecode=2P_Code10

New Line.trip_line_611_C_h_16 Units=km Length=0.03048
~ bus1=trip_node_611_C_2.1.2
~ bus2=trip_load_611_C_h_16.1.2 switch=n  phases=2 Linecode=2P_Code10

New Line.OL_611_C_xfmr_611_C_3 Units=km Length=0.03048
~ bus1=meter_611_C.3
~ bus2=xfmr_meter_611_C_3.3 switch=n  phases=1 Linecode=1P_OH_Code3

New Line.trip_line_611_C_h_17 Units=km Length=0.03048
~ bus1=trip_node_611_C_3.1.2
~ bus2=trip_load_611_C_h_17.1.2 switch=n  phases=2 Linecode=2P_Code10

New Line.trip_line_611_C_h_18 Units=km Length=0.03048
~ bus1=trip_node_611_C_3.1.2
~ bus2=trip_load_611_C_h_18.1.2 switch=n  phases=2 Linecode=2P_Code10

New Line.trip_line_611_C_h_19 Units=km Length=0.03048
~ bus1=trip_node_611_C_3.1.2
~ bus2=trip_load_611_C_h_19.1.2 switch=n  phases=2 Linecode=2P_Code10

New Line.trip_line_611_C_h_20 Units=km Length=0.03048
~ bus1=trip_node_611_C_3.1.2
~ bus2=trip_load_611_C_h_20.1.2 switch=n  phases=2 Linecode=2P_Code10

New Line.trip_line_611_C_h_21 Units=km Length=0.03048
~ bus1=trip_node_611_C_3.1.2
~ bus2=trip_load_611_C_h_21.1.2 switch=n  phases=2 Linecode=2P_Code10

New Line.trip_line_611_C_h_22 Units=km Length=0.03048
~ bus1=trip_node_611_C_3.1.2
~ bus2=trip_load_611_C_h_22.1.2 switch=n  phases=2 Linecode=2P_Code10

New Line.trip_line_611_C_h_23 Units=km Length=0.03048
~ bus1=trip_node_611_C_3.1.2
~ bus2=trip_load_611_C_h_23.1.2 switch=n  phases=2 Linecode=2P_Code10

New Line.trip_line_611_C_h_24 Units=km Length=0.03048
~ bus1=trip_node_611_C_3.1.2
~ bus2=trip_load_611_C_h_24.1.2 switch=n  phases=2 Linecode=2P_Code10

New Line.OL_611_C_xfmr_611_C_4 Units=km Length=0.03048
~ bus1=meter_611_C.3
~ bus2=xfmr_meter_611_C_4.3 switch=n  phases=1 Linecode=1P_OH_Code3

New Line.trip_line_611_C_h_25 Units=km Length=0.03048
~ bus1=trip_node_611_C_4.1.2
~ bus2=trip_load_611_C_h_25.1.2 switch=n  phases=2 Linecode=2P_Code10

New Line.trip_line_611_C_h_26 Units=km Length=0.03048
~ bus1=trip_node_611_C_4.1.2
~ bus2=trip_load_611_C_h_26.1.2 switch=n  phases=2 Linecode=2P_Code10

New Line.trip_line_611_C_h_27 Units=km Length=0.03048
~ bus1=trip_node_611_C_4.1.2
~ bus2=trip_load_611_C_h_27.1.2 switch=n  phases=2 Linecode=2P_Code10

New Line.trip_line_611_C_h_28 Units=km Length=0.03048
~ bus1=trip_node_611_C_4.1.2
~ bus2=trip_load_611_C_h_28.1.2 switch=n  phases=2 Linecode=2P_Code10

New Line.trip_line_611_C_h_29 Units=km Length=0.03048
~ bus1=trip_node_611_C_4.1.2
~ bus2=trip_load_611_C_h_29.1.2 switch=n  phases=2 Linecode=2P_Code10

New Line.trip_line_611_C_h_30 Units=km Length=0.03048
~ bus1=trip_node_611_C_4.1.2
~ bus2=trip_load_611_C_h_30.1.2 switch=n  phases=2 Linecode=2P_Code10

New Line.trip_line_611_C_h_31 Units=km Length=0.03048
~ bus1=trip_node_611_C_4.1.2
~ bus2=trip_load_611_C_h_31.1.2 switch=n  phases=2 Linecode=2P_Code10

New Line.trip_line_611_C_h_32 Units=km Length=0.03048
~ bus1=trip_node_611_C_4.1.2
~ bus2=trip_load_611_C_h_32.1.2 switch=n  phases=2 Linecode=2P_Code10

New Line.OL_611_C_xfmr_611_C_5 Units=km Length=0.03048
~ bus1=meter_611_C.3
~ bus2=xfmr_meter_611_C_5.3 switch=n  phases=1 Linecode=1P_OH_Code3

New Line.trip_line_611_C_h_33 Units=km Length=0.03048
~ bus1=trip_node_611_C_5.1.2
~ bus2=trip_load_611_C_h_33.1.2 switch=n  phases=2 Linecode=2P_Code10

New Line.trip_line_611_C_h_34 Units=km Length=0.03048
~ bus1=trip_node_611_C_5.1.2
~ bus2=trip_load_611_C_h_34.1.2 switch=n  phases=2 Linecode=2P_Code10

New Line.trip_line_611_C_h_35 Units=km Length=0.03048
~ bus1=trip_node_611_C_5.1.2
~ bus2=trip_load_611_C_h_35.1.2 switch=n  phases=2 Linecode=2P_Code10

New Line.trip_line_611_C_h_36 Units=km Length=0.03048
~ bus1=trip_node_611_C_5.1.2
~ bus2=trip_load_611_C_h_36.1.2 switch=n  phases=2 Linecode=2P_Code10

New Line.trip_line_611_C_h_37 Units=km Length=0.03048
~ bus1=trip_node_611_C_5.1.2
~ bus2=trip_load_611_C_h_37.1.2 switch=n  phases=2 Linecode=2P_Code10

New Line.trip_line_611_C_h_38 Units=km Length=0.03048
~ bus1=trip_node_611_C_5.1.2
~ bus2=trip_load_611_C_h_38.1.2 switch=n  phases=2 Linecode=2P_Code10

New Line.trip_line_611_C_h_39 Units=km Length=0.03048
~ bus1=trip_node_611_C_5.1.2
~ bus2=trip_load_611_C_h_39.1.2 switch=n  phases=2 Linecode=2P_Code10

New Line.trip_line_611_C_h_40 Units=km Length=0.03048
~ bus1=trip_node_611_C_5.1.2
~ bus2=trip_load_611_C_h_40.1.2 switch=n  phases=2 Linecode=2P_Code10

New Line.OL_684_C_xfmr_684_C_1 Units=km Length=0.03048
~ bus1=meter_684_C.3
~ bus2=xfmr_meter_684_C_1.3 switch=n  phases=1 Linecode=1P_OH_Code3

New Line.trip_line_684_C_h_1 Units=km Length=0.03048
~ bus1=trip_node_684_C_1.1.2
~ bus2=trip_load_684_C_h_1.1.2 switch=n  phases=2 Linecode=2P_Code10

New Line.trip_line_684_C_h_2 Units=km Length=0.03048
~ bus1=trip_node_684_C_1.1.2
~ bus2=trip_load_684_C_h_2.1.2 switch=n  phases=2 Linecode=2P_Code10

New Line.trip_line_684_C_h_3 Units=km Length=0.03048
~ bus1=trip_node_684_C_1.1.2
~ bus2=trip_load_684_C_h_3.1.2 switch=n  phases=2 Linecode=2P_Code10

New Line.trip_line_684_C_h_4 Units=km Length=0.03048
~ bus1=trip_node_684_C_1.1.2
~ bus2=trip_load_684_C_h_4.1.2 switch=n  phases=2 Linecode=2P_Code10

New Line.trip_line_684_C_h_5 Units=km Length=0.03048
~ bus1=trip_node_684_C_1.1.2
~ bus2=trip_load_684_C_h_5.1.2 switch=n  phases=2 Linecode=2P_Code10

New Line.trip_line_684_C_h_6 Units=km Length=0.03048
~ bus1=trip_node_684_C_1.1.2
~ bus2=trip_load_684_C_h_6.1.2 switch=n  phases=2 Linecode=2P_Code10

New Line.trip_line_684_C_h_7 Units=km Length=0.03048
~ bus1=trip_node_684_C_1.1.2
~ bus2=trip_load_684_C_h_7.1.2 switch=n  phases=2 Linecode=2P_Code10

New Line.trip_line_684_C_h_8 Units=km Length=0.03048
~ bus1=trip_node_684_C_1.1.2
~ bus2=trip_load_684_C_h_8.1.2 switch=n  phases=2 Linecode=2P_Code10

New Line.OL_684_C_xfmr_684_C_2 Units=km Length=0.03048
~ bus1=meter_684_C.3
~ bus2=xfmr_meter_684_C_2.3 switch=n  phases=1 Linecode=1P_OH_Code3

New Line.trip_line_684_C_h_9 Units=km Length=0.03048
~ bus1=trip_node_684_C_2.1.2
~ bus2=trip_load_684_C_h_9.1.2 switch=n  phases=2 Linecode=2P_Code10

New Line.trip_line_684_C_h_10 Units=km Length=0.03048
~ bus1=trip_node_684_C_2.1.2
~ bus2=trip_load_684_C_h_10.1.2 switch=n  phases=2 Linecode=2P_Code10

New Line.trip_line_684_C_h_11 Units=km Length=0.03048
~ bus1=trip_node_684_C_2.1.2
~ bus2=trip_load_684_C_h_11.1.2 switch=n  phases=2 Linecode=2P_Code10

New Line.trip_line_684_C_h_12 Units=km Length=0.03048
~ bus1=trip_node_684_C_2.1.2
~ bus2=trip_load_684_C_h_12.1.2 switch=n  phases=2 Linecode=2P_Code10

New Line.trip_line_684_C_h_13 Units=km Length=0.03048
~ bus1=trip_node_684_C_2.1.2
~ bus2=trip_load_684_C_h_13.1.2 switch=n  phases=2 Linecode=2P_Code10

New Line.trip_line_684_C_h_14 Units=km Length=0.03048
~ bus1=trip_node_684_C_2.1.2
~ bus2=trip_load_684_C_h_14.1.2 switch=n  phases=2 Linecode=2P_Code10

New Line.trip_line_684_C_h_15 Units=km Length=0.03048
~ bus1=trip_node_684_C_2.1.2
~ bus2=trip_load_684_C_h_15.1.2 switch=n  phases=2 Linecode=2P_Code10

New Line.trip_line_684_C_h_16 Units=km Length=0.03048
~ bus1=trip_node_684_C_2.1.2
~ bus2=trip_load_684_C_h_16.1.2 switch=n  phases=2 Linecode=2P_Code10

New Line.OL_684_C_xfmr_684_C_3 Units=km Length=0.03048
~ bus1=meter_684_C.3
~ bus2=xfmr_meter_684_C_3.3 switch=n  phases=1 Linecode=1P_OH_Code3

New Line.trip_line_684_C_h_17 Units=km Length=0.03048
~ bus1=trip_node_684_C_3.1.2
~ bus2=trip_load_684_C_h_17.1.2 switch=n  phases=2 Linecode=2P_Code10

New Line.trip_line_684_C_h_18 Units=km Length=0.03048
~ bus1=trip_node_684_C_3.1.2
~ bus2=trip_load_684_C_h_18.1.2 switch=n  phases=2 Linecode=2P_Code10

New Line.trip_line_684_C_h_19 Units=km Length=0.03048
~ bus1=trip_node_684_C_3.1.2
~ bus2=trip_load_684_C_h_19.1.2 switch=n  phases=2 Linecode=2P_Code10

New Line.trip_line_684_C_h_20 Units=km Length=0.03048
~ bus1=trip_node_684_C_3.1.2
~ bus2=trip_load_684_C_h_20.1.2 switch=n  phases=2 Linecode=2P_Code10

New Line.trip_line_684_C_h_21 Units=km Length=0.03048
~ bus1=trip_node_684_C_3.1.2
~ bus2=trip_load_684_C_h_21.1.2 switch=n  phases=2 Linecode=2P_Code10

New Line.trip_line_684_C_h_22 Units=km Length=0.03048
~ bus1=trip_node_684_C_3.1.2
~ bus2=trip_load_684_C_h_22.1.2 switch=n  phases=2 Linecode=2P_Code10

New Line.trip_line_684_C_h_23 Units=km Length=0.03048
~ bus1=trip_node_684_C_3.1.2
~ bus2=trip_load_684_C_h_23.1.2 switch=n  phases=2 Linecode=2P_Code10

New Line.trip_line_684_C_h_24 Units=km Length=0.03048
~ bus1=trip_node_684_C_3.1.2
~ bus2=trip_load_684_C_h_24.1.2 switch=n  phases=2 Linecode=2P_Code10

New Line.OL_684_C_xfmr_684_C_4 Units=km Length=0.03048
~ bus1=meter_684_C.3
~ bus2=xfmr_meter_684_C_4.3 switch=n  phases=1 Linecode=1P_OH_Code3

New Line.trip_line_684_C_h_25 Units=km Length=0.03048
~ bus1=trip_node_684_C_4.1.2
~ bus2=trip_load_684_C_h_25.1.2 switch=n  phases=2 Linecode=2P_Code10

New Line.trip_line_684_C_h_26 Units=km Length=0.03048
~ bus1=trip_node_684_C_4.1.2
~ bus2=trip_load_684_C_h_26.1.2 switch=n  phases=2 Linecode=2P_Code10

New Line.trip_line_684_C_h_27 Units=km Length=0.03048
~ bus1=trip_node_684_C_4.1.2
~ bus2=trip_load_684_C_h_27.1.2 switch=n  phases=2 Linecode=2P_Code10

New Line.trip_line_684_C_h_28 Units=km Length=0.03048
~ bus1=trip_node_684_C_4.1.2
~ bus2=trip_load_684_C_h_28.1.2 switch=n  phases=2 Linecode=2P_Code10

New Line.trip_line_684_C_h_29 Units=km Length=0.03048
~ bus1=trip_node_684_C_4.1.2
~ bus2=trip_load_684_C_h_29.1.2 switch=n  phases=2 Linecode=2P_Code10

New Line.trip_line_684_C_h_30 Units=km Length=0.03048
~ bus1=trip_node_684_C_4.1.2
~ bus2=trip_load_684_C_h_30.1.2 switch=n  phases=2 Linecode=2P_Code10

New Line.trip_line_684_C_h_31 Units=km Length=0.03048
~ bus1=trip_node_684_C_4.1.2
~ bus2=trip_load_684_C_h_31.1.2 switch=n  phases=2 Linecode=2P_Code10

New Line.trip_line_684_C_h_32 Units=km Length=0.03048
~ bus1=trip_node_684_C_4.1.2
~ bus2=trip_load_684_C_h_32.1.2 switch=n  phases=2 Linecode=2P_Code10

New Line.OL_684_C_xfmr_684_C_5 Units=km Length=0.03048
~ bus1=meter_684_C.3
~ bus2=xfmr_meter_684_C_5.3 switch=n  phases=1 Linecode=1P_OH_Code3

New Line.trip_line_684_C_h_33 Units=km Length=0.03048
~ bus1=trip_node_684_C_5.1.2
~ bus2=trip_load_684_C_h_33.1.2 switch=n  phases=2 Linecode=2P_Code10

New Line.trip_line_684_C_h_34 Units=km Length=0.03048
~ bus1=trip_node_684_C_5.1.2
~ bus2=trip_load_684_C_h_34.1.2 switch=n  phases=2 Linecode=2P_Code10

New Line.trip_line_684_C_h_35 Units=km Length=0.03048
~ bus1=trip_node_684_C_5.1.2
~ bus2=trip_load_684_C_h_35.1.2 switch=n  phases=2 Linecode=2P_Code10

New Line.trip_line_684_C_h_36 Units=km Length=0.03048
~ bus1=trip_node_684_C_5.1.2
~ bus2=trip_load_684_C_h_36.1.2 switch=n  phases=2 Linecode=2P_Code10

New Line.trip_line_684_C_h_37 Units=km Length=0.03048
~ bus1=trip_node_684_C_5.1.2
~ bus2=trip_load_684_C_h_37.1.2 switch=n  phases=2 Linecode=2P_Code10

New Line.trip_line_684_C_h_38 Units=km Length=0.03048
~ bus1=trip_node_684_C_5.1.2
~ bus2=trip_load_684_C_h_38.1.2 switch=n  phases=2 Linecode=2P_Code10

New Line.trip_line_684_C_h_39 Units=km Length=0.03048
~ bus1=trip_node_684_C_5.1.2
~ bus2=trip_load_684_C_h_39.1.2 switch=n  phases=2 Linecode=2P_Code10

New Line.trip_line_684_C_h_40 Units=km Length=0.03048
~ bus1=trip_node_684_C_5.1.2
~ bus2=trip_load_684_C_h_40.1.2 switch=n  phases=2 Linecode=2P_Code10

New Line.OL_684_A_xfmr_684_A_1 Units=km Length=0.03048
~ bus1=meter_684_A.1
~ bus2=xfmr_meter_684_A_1.1 switch=n  phases=1 Linecode=1P_OH_Code8

New Line.trip_line_684_A_h_1 Units=km Length=0.03048
~ bus1=trip_node_684_A_1.1.2
~ bus2=trip_load_684_A_h_1.1.2 switch=n  phases=2 Linecode=2P_Code10

...